ver_1.2
     RDKit          3D

 32 35  0  0  0  0  0  0  0  0999 V2000
    1.5238   -1.9586   -0.8146 C   0  0  0  0  0  0  0  0  0  0  0  0
    1.0130   -0.6023   -0.7291 N   0  0  0  0  0  0  0  0  0  0  0  0
    1.6001    0.4998   -1.3056 N   0  0  0  0  0  0  0  0  0  0  0  0
    2.1295    1.4851   -0.4257 C   0  0  0  0  0  0  0  0  0  0  0  0
    2.6806    2.5941   -1.3510 C   0  0  0  0  0  0  0  0  0  0  0  0
    4.0976    2.1053   -1.6757 C   0  0  0  0  0  0  0  0  0  0  0  0
    4.5440    1.5517   -0.3636 C   0  0  0  0  0  0  0  0  0  0  0  0
    5.6367    0.5877   -0.4654 C   0  0  0  0  0  0  0  0  0  0  0  0
    6.6710    0.4173    0.3610 C   0  0  0  0  0  0  0  0  0  0  0  0
    7.5870   -0.3756    0.2937 C   0  0  0  0  0  0  0  0  0  0  0  0
    7.1365   -1.2944   -1.3026 S   0  0  0  0  0  0  0  0  0  0  0  0
    5.6972   -0.3392   -1.5586 C   0  0  0  0  0  0  0  0  0  0  0  0
    3.3301    1.1120    0.3605 C   0  0  0  0  0  0  0  0  0  0  0  0
    3.3533   -0.1863    0.9974 C   0  0  0  0  0  0  0  0  0  0  0  0
    4.2496   -1.0375    0.6869 O   0  0  0  0  0  0  0  0  0  0  0  0
    2.3944   -0.5023    1.9500 O   0  0  0  0  0  0  0  0  0  0  0  0
   -0.2039   -0.4100    0.0164 C   0  0  0  0  0  0  0  0  0  0  0  0
   -0.8623   -1.4579    0.6253 C   0  0  0  0  0  0  0  0  0  0  0  0
   -2.0104   -1.3171    1.3359 C   0  0  0  0  0  0  0  0  0  0  0  0
   -2.5777   -0.0558    1.4745 C   0  0  0  0  0  0  0  0  0  0  0  0
   -3.7845    0.0787    2.2608 C   0  0  0  0  0  0  0  0  0  0  0  0
   -5.0857   -0.1475    1.6474 C   0  0  0  0  0  0  0  0  0  0  0  0
   -5.4833    0.7103    0.4951 C   0  0  0  0  0  0  0  0  0  0  0  0
   -5.5211    2.1794    0.7651 C   0  0  0  0  0  0  0  0  0  0  0  0
   -6.8854    0.2915    0.1400 N   0  0  0  0  0  0  0  0  0  0  0  0
   -6.7149   -0.9884   -0.5154 C   0  0  0  0  0  0  0  0  0  0  0  0
   -7.5519   -1.9313   -0.5618 O   0  0  0  0  0  0  0  0  0  0  0  0
   -5.3986   -0.9599   -1.0992 N   0  0  0  0  0  0  0  0  0  0  0  0
   -4.8452    0.3214   -0.7731 C   0  0  0  0  0  0  0  0  0  0  0  0
   -4.0032    0.8816   -1.5045 O   0  0  0  0  0  0  0  0  0  0  0  0
   -1.9411    1.0103    0.8764 C   0  0  0  0  0  0  0  0  0  0  0  0
   -0.7751    0.8415    0.1593 C   0  0  0  0  0  0  0  0  0  0  0  0
  1  2  1  0
  2  3  1  0
  3  4  1  0
  4  5  1  0
  5  6  1  0
  6  7  1  0
  7  8  1  0
  8  9  1  0
  9 10  2  0
 10 11  1  0
 11 12  1  0
  7 13  1  0
 13 14  1  0
 14 15  2  0
 14 16  1  0
  2 17  1  0
 17 18  2  0
 18 19  1  0
 19 20  2  0
 20 21  1  0
 21 22  1  0
 22 23  1  0
 23 24  1  0
 23 25  1  0
 25 26  1  0
 26 27  2  0
 26 28  1  0
 28 29  1  0
 29 30  2  0
 20 31  1  0
 31 32  2  0
 13  4  1  0
 32 17  1  0
 12  8  2  0
 29 23  1  0
M  END
>  <ref_url>  (1) 
https://github.com/mwinokan/BulkDock

>  <submitter_name>  (1) 
Max Winokan

>  <submitter_email>  (1) 
max.winokan@diamond.ac.uk

>  <submitter_institution>  (1) 
DLS

>  <generation_date>  (1) 
2025-02-07

>  <method>  (1) 
RNA-Cleft_fstein

>  <SLURM_JOB_ID>  (1) 
SLURM_JOB_ID

>  <SLURM_JOB_NAME>  (1) 
SLURM_JOB_NAME

>  <csv_name>  (1) 
csv_name

>  <scratch_subdir>  (1) 
scratch_subdir

>  <fragmenstein_runtime>  (1) 
fragmenstein_runtime

>  <fragmenstein_outcome>  (1) 
fragmenstein_outcome

>  <fragmenstein_mode>  (1) 
fragmenstein_mode

>  <fragmenstein_error>  (1) 
fragmenstein_error

>  <exports>  (1) 
exports

>  <HIPPO Pose ID>  (1) 
HIPPO Pose ID

>  <HIPPO Compound ID>  (1) 
HIPPO Compound ID

>  <smiles>  (1) 
smiles

>  <ref_pdb>  (1) 
protein reference

>  <ref_mols>  (1) 
fragment inspirations

>  <original ID>  (1) 
original ID

>  <compound inchikey>  (1) 
compound inchikey

$$$$
53
     RDKit          3D

 32 35  0  0  0  0  0  0  0  0999 V2000
  -16.4063    0.4651  -26.1330 C   0  0  0  0  0  0  0  0  0  0  0  0
  -16.8177    1.7288  -26.7604 N   0  0  0  0  0  0  0  0  0  0  0  0
  -15.8743    2.2794  -27.7304 N   0  0  0  0  0  0  0  0  0  0  0  0
  -15.8539    3.7498  -27.6889 C   0  0  2  0  0  0  0  0  0  0  0  0
  -16.5252    4.3080  -28.9610 C   0  0  0  0  0  0  0  0  0  0  0  0
  -16.0780    5.7615  -29.0690 C   0  0  0  0  0  0  0  0  0  0  0  0
  -14.9860    5.9117  -28.0107 C   0  0  2  0  0  0  0  0  0  0  0  0
  -13.9109    6.8928  -28.3472 C   0  0  0  0  0  0  0  0  0  0  0  0
  -13.5671    7.9888  -27.4897 C   0  0  0  0  0  0  0  0  0  0  0  0
  -12.5208    8.7312  -27.9765 C   0  0  0  0  0  0  0  0  0  0  0  0
  -11.9809    8.1581  -29.4830 S   0  0  0  0  0  0  0  0  0  0  0  0
  -13.1141    6.8838  -29.4731 C   0  0  0  0  0  0  0  0  0  0  0  0
  -14.5015    4.4751  -27.7537 C   0  0  1  0  0  0  0  0  0  0  0  0
  -13.6382    4.3481  -26.5265 C   0  0  0  0  0  0  0  0  0  0  0  0
  -12.8148    3.4599  -26.3571 O   0  0  0  0  0  0  0  0  0  0  0  0
  -13.7571    5.3180  -25.6071 O   0  0  0  0  0  0  0  0  0  0  0  0
  -18.2063    1.7896  -27.0912 C   0  0  0  0  0  0  0  0  0  0  0  0
  -18.8489    3.0322  -27.1275 C   0  0  0  0  0  0  0  0  0  0  0  0
  -20.1784    3.1838  -27.5074 C   0  0  0  0  0  0  0  0  0  0  0  0
  -20.9783    2.0708  -27.7328 C   0  0  0  0  0  0  0  0  0  0  0  0
  -22.4366    2.2436  -28.0923 C   0  0  0  0  0  0  0  0  0  0  0  0
  -23.1410    3.2517  -27.1576 C   0  0  0  0  0  0  0  0  0  0  0  0
  -24.6355    3.4761  -27.4211 C   0  0  1  0  0  0  0  0  0  0  0  0
  -25.3910    4.1942  -26.2896 C   0  0  0  0  0  0  0  0  0  0  0  0
  -24.9680    3.9565  -28.7295 N   0  0  0  0  0  0  0  0  0  0  0  0
  -25.8050    3.1045  -29.4024 C   0  0  0  0  0  0  0  0  0  0  0  0
  -26.2032    3.2427  -30.5437 O   0  0  0  0  0  0  0  0  0  0  0  0
  -26.0470    2.0384  -28.5997 N   0  0  0  0  0  0  0  0  0  0  0  0
  -25.3077    2.1367  -27.4673 C   0  0  0  0  0  0  0  0  0  0  0  0
  -25.1838    1.3458  -26.5445 O   0  0  0  0  0  0  0  0  0  0  0  0
  -20.3853    0.8083  -27.6351 C   0  0  0  0  0  0  0  0  0  0  0  0
  -19.0149    0.6715  -27.3429 C   0  0  0  0  0  0  0  0  0  0  0  0
  1  2  1  0
  2  3  1  0
  4  3  1  6
  4  5  1  0
  5  6  1  0
  6  7  1  0
  7  8  1  6
  8  9  1  0
  9 10  2  0
 10 11  1  0
 11 12  1  0
  7 13  1  0
 13 14  1  1
 14 15  2  0
 14 16  1  0
  2 17  1  0
 17 18  2  0
 18 19  1  0
 19 20  2  0
 20 21  1  0
 21 22  1  0
 22 23  1  0
 23 24  1  1
 23 25  1  0
 25 26  1  0
 26 27  2  0
 26 28  1  0
 28 29  1  0
 29 30  2  0
 20 31  1  0
 31 32  2  0
 13  4  1  0
 32 17  1  0
 12  8  2  0
 29 23  1  0
M  END
>  <name>  (1) 
ONTJEOBXPFYABJ-FZONSQQESA-N

>  <inchikey>  (1) 
ONTJEOBXPFYABJ-FZONSQQESA-N

>  <fragmenstein_error>  (1) 
None

>  <ref_mols>  (1) 
7ga1-a,8v7r-b

>  <ref_pdb>  (1) 
7ga1-a

>  <HIPPO Compound ID>  (1) 
50

>  <exports>  (1) 
['/opt/xchem-fragalysis-2/maxwin/BulkDock/OUTPUTS/TARGET_RNA-Cleft_fstein_split1000_batch000_296255.sdf']

>  <energy_score>  (1) 
-33.587865

>  <original ID>  (1) 
ONTJEOBXPFYABJ-FZONSQQESA-N

>  <SLURM_JOB_NAME>  (1) 
BulkDock.place:ZIKA_NS3_helicase:TARGET_RNA-Cleft_fstein_split1000_batch000

>  <HIPPO Pose ID>  (1) 
53

>  <original SMILES>  (1) 
CN(N[C@@H]1CC[C@H](c2ccsc2)[C@H]1C(=O)O)c1ccc(CC[C@@]2(C)NC(=O)NC2=O)cc1

>  <SLURM_JOB_ID>  (1) 
296255

>  <alias>  (1) 
None

>  <fragmenstein_mode>  (1) 
expansion

>  <distance_score>  (1) 
0.5787

>  <scratch_subdir>  (1) 
/opt/xchem-fragalysis-2/maxwin/BulkDock/SCRATCH/296255/C50-P9

>  <tags>  (1) 
['Fragmenstein placed']

>  <fragmenstein_outcome>  (1) 
acceptable

>  <csv_name>  (1) 
TARGET_RNA-Cleft_fstein_split1000_batch000.csv

>  <fragmenstein_runtime>  (1) 
6.359671

$$$$
54
     RDKit          3D

 32 35  0  0  0  0  0  0  0  0999 V2000
  -16.3189    0.6482  -26.1372 C   0  0  0  0  0  0  0  0  0  0  0  0
  -16.9061    1.7557  -26.8994 N   0  0  0  0  0  0  0  0  0  0  0  0
  -16.0540    2.4570  -27.8458 N   0  0  0  0  0  0  0  0  0  0  0  0
  -15.9810    3.9103  -27.5485 C   0  0  2  0  0  0  0  0  0  0  0  0
  -16.8056    4.7086  -28.5928 C   0  0  0  0  0  0  0  0  0  0  0  0
  -16.0771    6.0004  -28.9049 C   0  0  0  0  0  0  0  0  0  0  0  0
  -14.9595    6.0445  -27.8873 C   0  0  2  0  0  0  0  0  0  0  0  0
  -13.8262    6.9331  -28.2848 C   0  0  0  0  0  0  0  0  0  0  0  0
  -13.3924    8.0359  -27.4831 C   0  0  0  0  0  0  0  0  0  0  0  0
  -12.3235    8.6935  -28.0359 C   0  0  0  0  0  0  0  0  0  0  0  0
  -11.8727    8.0414  -29.5387 S   0  0  0  0  0  0  0  0  0  0  0  0
  -13.0663    6.8292  -29.4334 C   0  0  0  0  0  0  0  0  0  0  0  0
  -14.5955    4.5671  -27.6879 C   0  0  1  0  0  0  0  0  0  0  0  0
  -13.6571    4.3940  -26.5250 C   0  0  0  0  0  0  0  0  0  0  0  0
  -12.7797    3.5450  -26.4693 O   0  0  0  0  0  0  0  0  0  0  0  0
  -13.7583    5.2967  -25.5361 O   0  0  0  0  0  0  0  0  0  0  0  0
  -18.3140    1.6848  -27.1161 C   0  0  0  0  0  0  0  0  0  0  0  0
  -18.9265    2.4385  -28.1151 C   0  0  0  0  0  0  0  0  0  0  0  0
  -20.3004    2.5399  -28.2846 C   0  0  0  0  0  0  0  0  0  0  0  0
  -21.1508    1.7983  -27.4890 C   0  0  0  0  0  0  0  0  0  0  0  0
  -22.6275    1.9425  -27.7080 C   0  0  0  0  0  0  0  0  0  0  0  0
  -23.1590    3.2354  -27.0662 C   0  0  0  0  0  0  0  0  0  0  0  0
  -24.6158    3.5346  -27.4243 C   0  0  1  0  0  0  0  0  0  0  0  0
  -25.2968    4.5317  -26.4889 C   0  0  0  0  0  0  0  0  0  0  0  0
  -24.8377    3.8469  -28.8088 N   0  0  0  0  0  0  0  0  0  0  0  0
  -25.8078    3.0589  -29.3728 C   0  0  0  0  0  0  0  0  0  0  0  0
  -26.2087    3.1384  -30.5184 O   0  0  0  0  0  0  0  0  0  0  0  0
  -26.1871    2.1354  -28.4537 N   0  0  0  0  0  0  0  0  0  0  0  0
  -25.4580    2.2823  -27.3161 C   0  0  0  0  0  0  0  0  0  0  0  0
  -25.4717    1.5946  -26.3042 O   0  0  0  0  0  0  0  0  0  0  0  0
  -20.5932    0.9712  -26.5145 C   0  0  0  0  0  0  0  0  0  0  0  0
  -19.1960    0.9274  -26.3253 C   0  0  0  0  0  0  0  0  0  0  0  0
  1  2  1  0
  2  3  1  0
  4  3  1  6
  4  5  1  0
  5  6  1  0
  6  7  1  0
  7  8  1  6
  8  9  1  0
  9 10  2  0
 10 11  1  0
 11 12  1  0
  7 13  1  0
 13 14  1  1
 14 15  2  0
 14 16  1  0
  2 17  1  0
 17 18  2  0
 18 19  1  0
 19 20  2  0
 20 21  1  0
 21 22  1  0
 22 23  1  0
 23 24  1  1
 23 25  1  0
 25 26  1  0
 26 27  2  0
 26 28  1  0
 28 29  1  0
 29 30  2  0
 20 31  1  0
 31 32  2  0
 13  4  1  0
 32 17  1  0
 12  8  2  0
 29 23  1  0
M  END
>  <name>  (2) 
ONTJEOBXPFYABJ-FZONSQQESA-N

>  <inchikey>  (2) 
ONTJEOBXPFYABJ-FZONSQQESA-N

>  <fragmenstein_error>  (2) 
None

>  <ref_mols>  (2) 
7ga1-a,8v7r-b

>  <ref_pdb>  (2) 
8v7r-b

>  <HIPPO Compound ID>  (2) 
50

>  <exports>  (2) 
['/opt/xchem-fragalysis-2/maxwin/BulkDock/OUTPUTS/TARGET_RNA-Cleft_fstein_split1000_batch000_296255.sdf']

>  <energy_score>  (2) 
-38.601917

>  <original ID>  (2) 
ONTJEOBXPFYABJ-FZONSQQESA-N

>  <SLURM_JOB_NAME>  (2) 
BulkDock.place:ZIKA_NS3_helicase:TARGET_RNA-Cleft_fstein_split1000_batch000

>  <HIPPO Pose ID>  (2) 
54

>  <original SMILES>  (2) 
CN(N[C@@H]1CC[C@H](c2ccsc2)[C@H]1C(=O)O)c1ccc(CC[C@@]2(C)NC(=O)NC2=O)cc1

>  <SLURM_JOB_ID>  (2) 
296255

>  <alias>  (2) 
None

>  <fragmenstein_mode>  (2) 
expansion

>  <distance_score>  (2) 
0.584662

>  <scratch_subdir>  (2) 
/opt/xchem-fragalysis-2/maxwin/BulkDock/SCRATCH/296255/C50-P37

>  <tags>  (2) 
['Fragmenstein placed']

>  <fragmenstein_outcome>  (2) 
acceptable

>  <csv_name>  (2) 
TARGET_RNA-Cleft_fstein_split1000_batch000.csv

>  <fragmenstein_runtime>  (2) 
9.310896

$$$$
59
     RDKit          3D

 16 17  0  0  0  0  0  0  0  0999 V2000
  -16.3248    1.3809  -25.0324 C   0  0  0  0  0  0  0  0  0  0  0  0
  -16.3602    1.8168  -26.4914 C   0  0  1  0  0  0  0  0  0  0  0  0
  -17.6430    2.3907  -26.9068 N   0  0  0  0  0  0  0  0  0  0  0  0
  -17.2763    3.2132  -28.0887 O   0  0  0  0  0  0  0  0  0  0  0  0
  -15.8519    3.1718  -28.1643 C   0  0  1  0  0  0  0  0  0  0  0  0
  -15.3111    4.3949  -28.6384 N   0  0  0  0  0  0  0  0  0  0  0  0
  -13.8780    4.9608  -28.5441 C   0  0  0  0  0  0  0  0  0  0  0  0
  -12.9364    4.5461  -27.9954 O   0  0  0  0  0  0  0  0  0  0  0  0
  -13.8087    6.2021  -29.4283 C   0  0  0  0  0  0  0  0  0  0  0  0
  -14.3378    7.4728  -28.7893 C   0  0  0  0  0  0  0  0  0  0  0  0
  -13.5795    7.9020  -27.5354 C   0  0  0  0  0  0  0  0  0  0  0  0
  -13.8466    9.3937  -27.4748 C   0  0  0  0  0  0  0  0  0  0  0  0
  -13.6434    9.8157  -28.9202 C   0  0  0  0  0  0  0  0  0  0  0  0
  -14.2375    8.6822  -29.7399 C   0  0  0  0  0  0  0  0  0  0  0  0
  -15.3379    2.8015  -26.8494 N   0  0  0  0  0  0  0  0  0  0  0  0
  -15.5383    3.9539  -25.9611 O   0  0  0  0  0  0  0  0  0  0  0  0
  2  1  1  1
  2  3  1  0
  3  4  1  0
  4  5  1  0
  5  6  1  1
  6  7  1  0
  7  8  2  0
  7  9  1  0
  9 10  1  0
 10 11  1  0
 11 12  1  0
 12 13  1  0
 13 14  1  0
  5 15  1  0
 15 16  1  0
 15  2  1  0
 14 10  1  0
M  END
>  <name>  (3) 
MHRFJBVZPQSWMX-XVKPBYJWSA-N

>  <inchikey>  (3) 
MHRFJBVZPQSWMX-XVKPBYJWSA-N

>  <fragmenstein_error>  (3) 
None

>  <ref_mols>  (3) 
8v7u-a,7g9t-a

>  <ref_pdb>  (3) 
8v7u-a

>  <HIPPO Compound ID>  (3) 
54

>  <exports>  (3) 
['/opt/xchem-fragalysis-2/maxwin/BulkDock/OUTPUTS/TARGET_RNA-Cleft_fstein_split1000_batch000_296255.sdf']

>  <energy_score>  (3) 
-18.45623

>  <original ID>  (3) 
MHRFJBVZPQSWMX-XVKPBYJWSA-N

>  <SLURM_JOB_NAME>  (3) 
BulkDock.place:ZIKA_NS3_helicase:TARGET_RNA-Cleft_fstein_split1000_batch000

>  <HIPPO Pose ID>  (3) 
59

>  <original SMILES>  (3) 
C[C@H]1NO[C@@H](NC(=O)CC2CCCC2)N1O

>  <SLURM_JOB_ID>  (3) 
296255

>  <alias>  (3) 
None

>  <fragmenstein_mode>  (3) 
expansion

>  <distance_score>  (3) 
0.795356

>  <scratch_subdir>  (3) 
/opt/xchem-fragalysis-2/maxwin/BulkDock/SCRATCH/296255/C54-P10

>  <tags>  (3) 
['Fragmenstein placed']

>  <fragmenstein_outcome>  (3) 
acceptable

>  <csv_name>  (3) 
TARGET_RNA-Cleft_fstein_split1000_batch000.csv

>  <fragmenstein_runtime>  (3) 
3.203242

$$$$
60
     RDKit          3D

 16 17  0  0  0  0  0  0  0  0999 V2000
  -16.3449    1.3797  -25.0705 C   0  0  0  0  0  0  0  0  0  0  0  0
  -16.3587    1.8777  -26.5111 C   0  0  1  0  0  0  0  0  0  0  0  0
  -17.5617    2.6379  -26.8640 N   0  0  0  0  0  0  0  0  0  0  0  0
  -17.1156    3.4505  -28.0286 O   0  0  0  0  0  0  0  0  0  0  0  0
  -15.7077    3.2340  -28.1382 C   0  0  1  0  0  0  0  0  0  0  0  0
  -15.0179    4.4000  -28.5762 N   0  0  0  0  0  0  0  0  0  0  0  0
  -13.5908    4.9007  -28.2585 C   0  0  0  0  0  0  0  0  0  0  0  0
  -12.7857    4.4764  -27.5280 O   0  0  0  0  0  0  0  0  0  0  0  0
  -13.2843    6.0810  -29.1822 C   0  0  0  0  0  0  0  0  0  0  0  0
  -14.0311    7.3588  -28.8510 C   0  0  0  0  0  0  0  0  0  0  0  0
  -13.7006    7.9476  -27.4833 C   0  0  0  0  0  0  0  0  0  0  0  0
  -14.2059    9.3856  -27.5760 C   0  0  0  0  0  0  0  0  0  0  0  0
  -14.2625    9.7209  -29.0688 C   0  0  0  0  0  0  0  0  0  0  0  0
  -13.6669    8.5162  -29.7816 C   0  0  0  0  0  0  0  0  0  0  0  0
  -15.2256    2.7355  -26.8541 N   0  0  0  0  0  0  0  0  0  0  0  0
  -15.2613    3.8609  -25.9087 O   0  0  0  0  0  0  0  0  0  0  0  0
  2  1  1  1
  2  3  1  0
  3  4  1  0
  4  5  1  0
  5  6  1  1
  6  7  1  0
  7  8  2  0
  7  9  1  0
  9 10  1  0
 10 11  1  0
 11 12  1  0
 12 13  1  0
 13 14  1  0
  5 15  1  0
 15 16  1  0
 15  2  1  0
 14 10  1  0
M  END
>  <name>  (4) 
MHRFJBVZPQSWMX-XVKPBYJWSA-N

>  <inchikey>  (4) 
MHRFJBVZPQSWMX-XVKPBYJWSA-N

>  <fragmenstein_error>  (4) 
None

>  <ref_mols>  (4) 
8v7u-a,7g9t-a

>  <ref_pdb>  (4) 
7g9t-a

>  <HIPPO Compound ID>  (4) 
54

>  <exports>  (4) 
['/opt/xchem-fragalysis-2/maxwin/BulkDock/OUTPUTS/TARGET_RNA-Cleft_fstein_split1000_batch000_296255.sdf']

>  <energy_score>  (4) 
-18.421307

>  <original ID>  (4) 
MHRFJBVZPQSWMX-XVKPBYJWSA-N

>  <SLURM_JOB_NAME>  (4) 
BulkDock.place:ZIKA_NS3_helicase:TARGET_RNA-Cleft_fstein_split1000_batch000

>  <HIPPO Pose ID>  (4) 
60

>  <original SMILES>  (4) 
C[C@H]1NO[C@@H](NC(=O)CC2CCCC2)N1O

>  <SLURM_JOB_ID>  (4) 
296255

>  <alias>  (4) 
None

>  <fragmenstein_mode>  (4) 
expansion

>  <distance_score>  (4) 
0.726473

>  <scratch_subdir>  (4) 
/opt/xchem-fragalysis-2/maxwin/BulkDock/SCRATCH/296255/C54-P19

>  <tags>  (4) 
['Fragmenstein placed']

>  <fragmenstein_outcome>  (4) 
acceptable

>  <csv_name>  (4) 
TARGET_RNA-Cleft_fstein_split1000_batch000.csv

>  <fragmenstein_runtime>  (4) 
2.953742

$$$$
65
     RDKit          3D

 32 35  0  0  0  0  0  0  0  0999 V2000
  -25.1777    4.6217  -26.2817 C   0  0  0  0  0  0  0  0  0  0  0  0
  -24.6049    3.8111  -27.4491 C   0  0  2  0  0  0  0  0  0  0  0  0
  -23.1224    3.4687  -27.3299 C   0  0  0  0  0  0  0  0  0  0  0  0
  -22.6585    2.4103  -28.3364 C   0  0  0  0  0  0  0  0  0  0  0  0
  -21.3225    1.8729  -27.9316 C   0  0  0  0  0  0  0  0  0  0  0  0
  -20.1710    2.5816  -28.2613 C   0  0  0  0  0  0  0  0  0  0  0  0
  -18.9372    2.1003  -27.8589 C   0  0  0  0  0  0  0  0  0  0  0  0
  -18.8576    0.9476  -27.0765 C   0  0  0  0  0  0  0  0  0  0  0  0
  -17.6793    0.4805  -26.5640 O   0  0  0  0  0  0  0  0  0  0  0  0
  -17.0505    1.4788  -25.7441 C   0  0  0  0  0  0  0  0  0  0  0  0
  -16.1171    2.3195  -26.5260 C   0  0  0  0  0  0  0  0  0  0  0  0
  -15.1331    1.7478  -27.2144 N   0  0  0  0  0  0  0  0  0  0  0  0
  -14.4928    2.8228  -27.8050 O   0  0  0  0  0  0  0  0  0  0  0  0
  -15.2416    3.9191  -27.5284 C   0  0  0  0  0  0  0  0  0  0  0  0
  -14.8706    5.0407  -28.1568 N   0  0  0  0  0  0  0  0  0  0  0  0
  -13.5617    5.3906  -28.8884 C   0  0  0  0  0  0  0  0  0  0  0  0
  -12.5715    4.7873  -28.9936 O   0  0  0  0  0  0  0  0  0  0  0  0
  -13.7432    6.7043  -29.6276 C   0  0  0  0  0  0  0  0  0  0  0  0
  -14.2607    7.8607  -28.8089 C   0  0  0  0  0  0  0  0  0  0  0  0
  -13.4877    8.1665  -27.5337 C   0  0  0  0  0  0  0  0  0  0  0  0
  -14.0052    9.5491  -27.1532 C   0  0  0  0  0  0  0  0  0  0  0  0
  -14.5265   10.1720  -28.4503 C   0  0  0  0  0  0  0  0  0  0  0  0
  -14.1802    9.1879  -29.5526 C   0  0  0  0  0  0  0  0  0  0  0  0
  -16.2610    3.6725  -26.7467 N   0  0  0  0  0  0  0  0  0  0  0  0
  -19.9979    0.2179  -26.7706 C   0  0  0  0  0  0  0  0  0  0  0  0
  -21.2349    0.6849  -27.1939 C   0  0  0  0  0  0  0  0  0  0  0  0
  -25.0019    4.2685  -28.7492 N   0  0  0  0  0  0  0  0  0  0  0  0
  -25.7988    3.3604  -29.3984 C   0  0  0  0  0  0  0  0  0  0  0  0
  -26.1471    3.4238  -30.5621 O   0  0  0  0  0  0  0  0  0  0  0  0
  -26.0673    2.3456  -28.5418 N   0  0  0  0  0  0  0  0  0  0  0  0
  -25.3559    2.5043  -27.3988 C   0  0  0  0  0  0  0  0  0  0  0  0
  -25.2556    1.7503  -26.4409 O   0  0  0  0  0  0  0  0  0  0  0  0
  2  1  1  1
  2  3  1  0
  3  4  1  0
  4  5  1  0
  5  6  2  0
  6  7  1  0
  7  8  2  0
  8  9  1  0
  9 10  1  0
 10 11  1  0
 11 12  2  0
 12 13  1  0
 13 14  1  0
 14 15  1  0
 15 16  1  0
 16 17  2  0
 16 18  1  0
 18 19  1  0
 19 20  1  0
 20 21  1  0
 21 22  1  0
 22 23  1  0
 14 24  2  0
  8 25  1  0
 25 26  2  0
  2 27  1  0
 27 28  1  0
 28 29  2  0
 28 30  1  0
 30 31  1  0
 31 32  2  0
 31  2  1  0
 26  5  1  0
 24 11  1  0
 23 19  1  0
M  END
>  <name>  (5) 
ANXBTOWFTMXRIE-JOCHJYFZSA-N

>  <inchikey>  (5) 
ANXBTOWFTMXRIE-JOCHJYFZSA-N

>  <fragmenstein_error>  (5) 
None

>  <ref_mols>  (5) 
8v7u-a,8v7r-b

>  <ref_pdb>  (5) 
8v7u-a

>  <HIPPO Compound ID>  (5) 
57

>  <exports>  (5) 
['/opt/xchem-fragalysis-2/maxwin/BulkDock/OUTPUTS/TARGET_RNA-Cleft_fstein_split1000_batch000_296255.sdf']

>  <energy_score>  (5) 
-51.586577

>  <original ID>  (5) 
ANXBTOWFTMXRIE-JOCHJYFZSA-N

>  <SLURM_JOB_NAME>  (5) 
BulkDock.place:ZIKA_NS3_helicase:TARGET_RNA-Cleft_fstein_split1000_batch000

>  <HIPPO Pose ID>  (5) 
65

>  <original SMILES>  (5) 
C[C@]1(CCc2ccc(OCc3noc(NC(=O)CC4CCCC4)n3)cc2)NC(=O)NC1=O

>  <SLURM_JOB_ID>  (5) 
296255

>  <alias>  (5) 
None

>  <fragmenstein_mode>  (5) 
expansion

>  <distance_score>  (5) 
0.878196

>  <scratch_subdir>  (5) 
/opt/xchem-fragalysis-2/maxwin/BulkDock/SCRATCH/296255/C57-P10

>  <tags>  (5) 
['Fragmenstein placed']

>  <fragmenstein_outcome>  (5) 
acceptable

>  <csv_name>  (5) 
TARGET_RNA-Cleft_fstein_split1000_batch000.csv

>  <fragmenstein_runtime>  (5) 
8.533816

$$$$
