ver_1.2
     RDKit          3D

 22 23  0  0  0  0  0  0  0  0999 V2000
    2.7010   -2.9843   -0.7582 C   0  0  0  0  0  0  0  0  0  0  0  0
    2.5217   -1.4663   -0.6025 C   0  0  0  0  0  0  0  0  0  0  0  0
    1.5008   -1.2617    0.4358 N   0  0  0  0  0  0  0  0  0  0  0  0
    1.3306    0.1972    0.5590 C   0  0  0  0  0  0  0  0  0  0  0  0
    0.6753    0.6007   -0.7731 C   0  0  0  0  0  0  0  0  0  0  0  0
   -0.6373   -0.2015   -0.7759 C   0  0  0  0  0  0  0  0  0  0  0  0
   -1.3460    0.2474    0.3924 N   0  0  0  0  0  0  0  0  0  0  0  0
   -1.8072    1.5990    0.3254 C   0  0  0  0  0  0  0  0  0  0  0  0
   -3.2097    1.7260   -0.2132 C   0  0  0  0  0  0  0  0  0  0  0  0
   -3.9333    0.3970   -0.2124 C   0  0  0  0  0  0  0  0  0  0  0  0
   -5.4168    0.5537   -0.4350 C   0  0  0  0  0  0  0  0  0  0  0  0
   -5.6128    1.2250   -1.7935 C   0  0  0  0  0  0  0  0  0  0  0  0
   -6.0225    1.4120    0.6456 C   0  0  0  0  0  0  0  0  0  0  0  0
   -6.0697   -0.7956   -0.4636 C   0  0  0  0  0  0  0  0  0  0  0  0
   -3.6350   -0.3090    1.0817 C   0  0  0  0  0  0  0  0  0  0  0  0
   -2.1771   -0.6944    1.0345 C   0  0  0  0  0  0  0  0  0  0  0  0
    3.8184   -0.9933    0.0068 C   0  0  0  0  0  0  0  0  0  0  0  0
    3.9330    0.4883    0.2790 C   0  0  0  0  0  0  0  0  0  0  0  0
    5.7108    0.2225    0.2890 S   0  0  0  0  0  0  0  0  0  0  0  0
    6.1695   -0.4813    1.5251 O   0  0  0  0  0  0  0  0  0  0  0  0
    6.5250    1.3514   -0.2040 O   0  0  0  0  0  0  0  0  0  0  0  0
    4.9813   -0.8326   -0.9472 C   0  0  0  0  0  0  0  0  0  0  0  0
  1  2  1  0
  2  3  1  0
  3  4  1  0
  4  5  1  0
  5  6  1  0
  6  7  1  0
  7  8  1  0
  8  9  1  0
  9 10  1  0
 10 11  1  0
 11 12  1  0
 11 13  1  0
 11 14  1  0
 10 15  1  0
 15 16  1  0
  2 17  1  0
 17 18  1  0
 18 19  1  0
 19 20  2  0
 19 21  2  0
 19 22  1  0
 16  7  1  0
 22 17  1  0
M  END
>  <ref_url>  (1) 
https://github.com/mwinokan/BulkDock

>  <submitter_name>  (1) 
Max Winokan

>  <submitter_email>  (1) 
max.winokan@diamond.ac.uk

>  <submitter_institution>  (1) 
DLS

>  <generation_date>  (1) 
2025-02-11

>  <method>  (1) 
RNA-Cleft_knitwork_pure

>  <SLURM_JOB_ID>  (1) 
SLURM_JOB_ID

>  <SLURM_JOB_NAME>  (1) 
SLURM_JOB_NAME

>  <csv_name>  (1) 
csv_name

>  <scratch_subdir>  (1) 
scratch_subdir

>  <fragmenstein_runtime>  (1) 
fragmenstein_runtime

>  <fragmenstein_outcome>  (1) 
fragmenstein_outcome

>  <fragmenstein_mode>  (1) 
fragmenstein_mode

>  <fragmenstein_error>  (1) 
fragmenstein_error

>  <exports>  (1) 
exports

>  <HIPPO Pose ID>  (1) 
HIPPO Pose ID

>  <HIPPO Compound ID>  (1) 
HIPPO Compound ID

>  <smiles>  (1) 
smiles

>  <ref_pdb>  (1) 
protein reference

>  <ref_mols>  (1) 
fragment inspirations

>  <original ID>  (1) 
original ID

>  <compound inchikey>  (1) 
compound inchikey

$$$$
373
     RDKit          3D

 22 23  0  0  0  0  0  0  0  0999 V2000
  -24.0409    1.2698  -26.0050 C   0  0  0  0  0  0  0  0  0  0  0  0
  -23.8798    2.4763  -26.9171 C   0  0  1  0  0  0  0  0  0  0  0  0
  -22.4921    2.9649  -26.9802 N   0  0  0  0  0  0  0  0  0  0  0  0
  -21.4404    1.9781  -27.2076 C   0  0  0  0  0  0  0  0  0  0  0  0
  -20.2541    2.5416  -28.0130 C   0  0  0  0  0  0  0  0  0  0  0  0
  -19.6434    3.8350  -27.4583 C   0  0  0  0  0  0  0  0  0  0  0  0
  -18.4775    4.2604  -28.2582 N   0  0  0  0  0  0  0  0  0  0  0  0
  -18.5004    5.6929  -28.5831 C   0  0  0  0  0  0  0  0  0  0  0  0
  -17.2101    6.4565  -28.2836 C   0  0  0  0  0  0  0  0  0  0  0  0
  -15.9675    5.7674  -28.8691 C   0  0  0  0  0  0  0  0  0  0  0  0
  -14.6185    6.4290  -28.4026 C   0  0  0  0  0  0  0  0  0  0  0  0
  -14.6252    7.9486  -28.6803 C   0  0  0  0  0  0  0  0  0  0  0  0
  -14.3581    6.2252  -26.8960 C   0  0  0  0  0  0  0  0  0  0  0  0
  -13.4289    5.8338  -29.1814 C   0  0  0  0  0  0  0  0  0  0  0  0
  -16.0496    4.2365  -28.6463 C   0  0  0  0  0  0  0  0  0  0  0  0
  -17.2018    3.8037  -27.7312 C   0  0  0  0  0  0  0  0  0  0  0  0
  -24.3959    2.2339  -28.3277 C   0  0  0  0  0  0  0  0  0  0  0  0
  -25.9232    2.1763  -28.5900 C   0  0  0  0  0  0  0  0  0  0  0  0
  -25.6484    2.9559  -30.1595 S   0  0  0  0  0  0  0  0  0  0  0  0
  -25.1705    2.0331  -31.1676 O   0  0  0  0  0  0  0  0  0  0  0  0
  -26.6252    3.9806  -30.4312 O   0  0  0  0  0  0  0  0  0  0  0  0
  -24.2958    3.5154  -29.2065 C   0  0  0  0  0  0  0  0  0  0  0  0
  2  1  1  1
  2  3  1  0
  3  4  1  0
  4  5  1  0
  5  6  1  0
  6  7  1  0
  7  8  1  0
  8  9  1  0
  9 10  1  0
 10 11  1  0
 11 12  1  0
 11 13  1  0
 11 14  1  0
 10 15  1  0
 15 16  1  0
  2 17  1  0
 17 18  1  0
 18 19  1  0
 19 20  2  0
 19 21  2  0
 19 22  1  0
 16  7  1  0
 22 17  1  0
M  END
>  <distance_score>  (1) 
0.961774

>  <fragmenstein_runtime>  (1) 
19.770607

>  <HIPPO Pose ID>  (1) 
373

>  <SLURM_JOB_NAME>  (1) 
BulkDock.place:ZIKA_NS3_helicase:Zika_NS3_RNA-Cleft_knitwork_pure_split1000_batch000

>  <ref_mols>  (1) 
7ga3-a,7g9y-a

>  <fragmenstein_error>  (1) 
None

>  <exports>  (1) 
['/opt/xchem-fragalysis-2/maxwin/BulkDock/OUTPUTS/Zika_NS3_RNA-Cleft_knitwork_pure_split1000_batch000_301889.sdf']

>  <inchikey>  (1) 
FYEDIAIDNAIRHH-CQSZACIVSA-N

>  <tags>  (1) 
['Fragmenstein placed']

>  <csv_name>  (1) 
Zika_NS3_RNA-Cleft_knitwork_pure_split1000_batch000.csv

>  <scratch_subdir>  (1) 
/opt/xchem-fragalysis-2/maxwin/BulkDock/SCRATCH/301889/C1305-P28

>  <fragmenstein_outcome>  (1) 
acceptable

>  <original ID>  (1) 
FYEDIAIDNAIRHH-CQSZACIVSA-N

>  <energy_score>  (1) 
-60.421556

>  <original SMILES>  (1) 
C[C@@H](NCCCN1CCC(C(C)(C)C)CC1)C1CS(=O)(=O)C1

>  <fragmenstein_mode>  (1) 
expansion

>  <name>  (1) 
FYEDIAIDNAIRHH-CQSZACIVSA-N

>  <ref_pdb>  (1) 
7ga3-a

>  <alias>  (1) 
None

>  <SLURM_JOB_ID>  (1) 
301889

>  <HIPPO Compound ID>  (1) 
1305

$$$$
374
     RDKit          3D

 22 23  0  0  0  0  0  0  0  0999 V2000
  -24.1794    1.5928  -25.4597 C   0  0  0  0  0  0  0  0  0  0  0  0
  -24.1272    2.9470  -26.1636 C   0  0  1  0  0  0  0  0  0  0  0  0
  -22.9078    3.6966  -25.7797 N   0  0  0  0  0  0  0  0  0  0  0  0
  -21.6095    3.0328  -26.0294 C   0  0  0  0  0  0  0  0  0  0  0  0
  -20.8263    3.5525  -27.2479 C   0  0  0  0  0  0  0  0  0  0  0  0
  -19.3108    3.5616  -26.9542 C   0  0  0  0  0  0  0  0  0  0  0  0
  -18.4339    3.9809  -28.0637 N   0  0  0  0  0  0  0  0  0  0  0  0
  -18.6087    5.3953  -28.4468 C   0  0  0  0  0  0  0  0  0  0  0  0
  -17.3896    6.2966  -28.2098 C   0  0  0  0  0  0  0  0  0  0  0  0
  -16.1098    5.7595  -28.8845 C   0  0  0  0  0  0  0  0  0  0  0  0
  -14.7909    6.4593  -28.3813 C   0  0  0  0  0  0  0  0  0  0  0  0
  -14.9045    7.9925  -28.5189 C   0  0  0  0  0  0  0  0  0  0  0  0
  -14.4821    6.1312  -26.9064 C   0  0  0  0  0  0  0  0  0  0  0  0
  -13.5769    6.0209  -29.2268 C   0  0  0  0  0  0  0  0  0  0  0  0
  -16.0852    4.2175  -28.8177 C   0  0  0  0  0  0  0  0  0  0  0  0
  -17.0399    3.6497  -27.7700 C   0  0  0  0  0  0  0  0  0  0  0  0
  -24.2830    2.8208  -27.6767 C   0  0  0  0  0  0  0  0  0  0  0  0
  -25.5341    2.1123  -28.2846 C   0  0  0  0  0  0  0  0  0  0  0  0
  -25.3117    3.1056  -29.7515 S   0  0  0  0  0  0  0  0  0  0  0  0
  -24.2735    2.5073  -30.5679 O   0  0  0  0  0  0  0  0  0  0  0  0
  -26.5777    3.5283  -30.2987 O   0  0  0  0  0  0  0  0  0  0  0  0
  -24.7581    4.1054  -28.4102 C   0  0  0  0  0  0  0  0  0  0  0  0
  2  1  1  1
  2  3  1  0
  3  4  1  0
  4  5  1  0
  5  6  1  0
  6  7  1  0
  7  8  1  0
  8  9  1  0
  9 10  1  0
 10 11  1  0
 11 12  1  0
 11 13  1  0
 11 14  1  0
 10 15  1  0
 15 16  1  0
  2 17  1  0
 17 18  1  0
 18 19  1  0
 19 20  2  0
 19 21  2  0
 19 22  1  0
 16  7  1  0
 22 17  1  0
M  END
>  <distance_score>  (2) 
0.89762

>  <fragmenstein_runtime>  (2) 
19.925319

>  <HIPPO Pose ID>  (2) 
374

>  <SLURM_JOB_NAME>  (2) 
BulkDock.place:ZIKA_NS3_helicase:Zika_NS3_RNA-Cleft_knitwork_pure_split1000_batch000

>  <ref_mols>  (2) 
7ga3-a,7g9y-a

>  <fragmenstein_error>  (2) 
None

>  <exports>  (2) 
['/opt/xchem-fragalysis-2/maxwin/BulkDock/OUTPUTS/Zika_NS3_RNA-Cleft_knitwork_pure_split1000_batch000_301889.sdf']

>  <inchikey>  (2) 
FYEDIAIDNAIRHH-CQSZACIVSA-N

>  <tags>  (2) 
['Fragmenstein placed']

>  <csv_name>  (2) 
Zika_NS3_RNA-Cleft_knitwork_pure_split1000_batch000.csv

>  <scratch_subdir>  (2) 
/opt/xchem-fragalysis-2/maxwin/BulkDock/SCRATCH/301889/C1305-P40

>  <fragmenstein_outcome>  (2) 
acceptable

>  <original ID>  (2) 
FYEDIAIDNAIRHH-CQSZACIVSA-N

>  <energy_score>  (2) 
-56.039844

>  <original SMILES>  (2) 
C[C@@H](NCCCN1CCC(C(C)(C)C)CC1)C1CS(=O)(=O)C1

>  <fragmenstein_mode>  (2) 
expansion

>  <name>  (2) 
FYEDIAIDNAIRHH-CQSZACIVSA-N

>  <ref_pdb>  (2) 
7g9y-a

>  <alias>  (2) 
None

>  <SLURM_JOB_ID>  (2) 
301889

>  <HIPPO Compound ID>  (2) 
1305

$$$$
591
     RDKit          3D

 16 18  0  0  0  0  0  0  0  0999 V2000
  -18.5804    9.1102  -27.1562 S   0  0  0  0  0  0  0  0  0  0  0  0
  -17.2261    8.1630  -27.8112 C   0  0  0  0  0  0  0  0  0  0  0  0
  -16.0874    8.8715  -27.9141 N   0  0  0  0  0  0  0  0  0  0  0  0
  -14.9889    8.2202  -28.2908 C   0  0  0  0  0  0  0  0  0  0  0  0
  -13.8365    9.0018  -28.4540 N   0  0  0  0  0  0  0  0  0  0  0  0
  -12.6287    8.3165  -27.9795 C   0  0  0  0  0  0  0  0  0  0  0  0
  -11.7433    8.1390  -29.2083 C   0  0  0  0  0  0  0  0  0  0  0  0
  -12.7179    8.1942  -30.3659 C   0  0  0  0  0  0  0  0  0  0  0  0
  -13.6858    9.2671  -29.8927 C   0  0  0  0  0  0  0  0  0  0  0  0
  -14.9599    6.9034  -28.5581 N   0  0  0  0  0  0  0  0  0  0  0  0
  -16.1203    6.2230  -28.4736 C   0  0  0  0  0  0  0  0  0  0  0  0
  -17.3149    6.8177  -28.1198 C   0  0  0  0  0  0  0  0  0  0  0  0
  -18.5825    6.0232  -28.0284 C   0  0  0  0  0  0  0  0  0  0  0  0
  -18.4806    4.6324  -28.5020 N   0  0  0  0  0  0  0  0  0  0  0  0
  -17.2246    4.0148  -28.1140 C   0  0  0  0  0  0  0  0  0  0  0  0
  -16.0755    4.7551  -28.7961 C   0  0  0  0  0  0  0  0  0  0  0  0
  1  2  1  0
  2  3  2  0
  3  4  1  0
  4  5  1  0
  5  6  1  0
  6  7  1  0
  7  8  1  0
  8  9  1  0
  4 10  2  0
 10 11  1  0
 11 12  2  0
 12 13  1  0
 13 14  1  0
 14 15  1  0
 15 16  1  0
 12  2  1  0
  9  5  1  0
 16 11  1  0
M  END
>  <distance_score>  (3) 
0.88094

>  <fragmenstein_runtime>  (3) 
4.265549

>  <HIPPO Pose ID>  (3) 
591

>  <SLURM_JOB_NAME>  (3) 
BulkDock.place:ZIKA_NS3_helicase:Zika_NS3_RNA-Cleft_knitwork_pure_split1000_batch000

>  <ref_mols>  (3) 
7ga2-a,7g9y-a

>  <fragmenstein_error>  (3) 
None

>  <exports>  (3) 
['/opt/xchem-fragalysis-2/maxwin/BulkDock/OUTPUTS/Zika_NS3_RNA-Cleft_knitwork_pure_split1000_batch000_301889.sdf']

>  <inchikey>  (3) 
NCLKRKKCEDIJKV-UHFFFAOYSA-N

>  <tags>  (3) 
['Fragmenstein placed']

>  <csv_name>  (3) 
Zika_NS3_RNA-Cleft_knitwork_pure_split1000_batch000.csv

>  <scratch_subdir>  (3) 
/opt/xchem-fragalysis-2/maxwin/BulkDock/SCRATCH/301889/C1622-P27

>  <fragmenstein_outcome>  (3) 
acceptable

>  <original ID>  (3) 
NCLKRKKCEDIJKV-UHFFFAOYSA-N

>  <energy_score>  (3) 
-26.306547

>  <original SMILES>  (3) 
Sc1nc(N2CCCC2)nc2c1CNCC2

>  <fragmenstein_mode>  (3) 
expansion

>  <name>  (3) 
NCLKRKKCEDIJKV-UHFFFAOYSA-N

>  <ref_pdb>  (3) 
7ga2-a

>  <alias>  (3) 
None

>  <SLURM_JOB_ID>  (3) 
301889

>  <HIPPO Compound ID>  (3) 
1622

$$$$
592
     RDKit          3D

 16 18  0  0  0  0  0  0  0  0999 V2000
  -18.7137    9.0059  -27.2003 S   0  0  0  0  0  0  0  0  0  0  0  0
  -17.3216    8.1040  -27.8424 C   0  0  0  0  0  0  0  0  0  0  0  0
  -16.2036    8.8462  -27.9425 N   0  0  0  0  0  0  0  0  0  0  0  0
  -15.0817    8.2237  -28.3030 C   0  0  0  0  0  0  0  0  0  0  0  0
  -13.9408    9.0286  -28.4154 N   0  0  0  0  0  0  0  0  0  0  0  0
  -12.7321    8.3576  -27.9229 C   0  0  0  0  0  0  0  0  0  0  0  0
  -11.7999    8.2505  -29.1241 C   0  0  0  0  0  0  0  0  0  0  0  0
  -12.7347    8.3217  -30.3117 C   0  0  0  0  0  0  0  0  0  0  0  0
  -13.7510    9.3473  -29.8369 C   0  0  0  0  0  0  0  0  0  0  0  0
  -15.0162    6.9104  -28.5795 N   0  0  0  0  0  0  0  0  0  0  0  0
  -16.1571    6.1966  -28.4973 C   0  0  0  0  0  0  0  0  0  0  0  0
  -17.3684    6.7547  -28.1408 C   0  0  0  0  0  0  0  0  0  0  0  0
  -18.6073    5.9185  -28.0243 C   0  0  0  0  0  0  0  0  0  0  0  0
  -18.4676    4.5324  -28.5002 N   0  0  0  0  0  0  0  0  0  0  0  0
  -17.1891    3.9549  -28.1245 C   0  0  0  0  0  0  0  0  0  0  0  0
  -16.0702    4.7302  -28.8181 C   0  0  0  0  0  0  0  0  0  0  0  0
  1  2  1  0
  2  3  2  0
  3  4  1  0
  4  5  1  0
  5  6  1  0
  6  7  1  0
  7  8  1  0
  8  9  1  0
  4 10  2  0
 10 11  1  0
 11 12  2  0
 12 13  1  0
 13 14  1  0
 14 15  1  0
 15 16  1  0
 12  2  1  0
  9  5  1  0
 16 11  1  0
M  END
>  <distance_score>  (4) 
0.904222

>  <fragmenstein_runtime>  (4) 
5.088193

>  <HIPPO Pose ID>  (4) 
592

>  <SLURM_JOB_NAME>  (4) 
BulkDock.place:ZIKA_NS3_helicase:Zika_NS3_RNA-Cleft_knitwork_pure_split1000_batch000

>  <ref_mols>  (4) 
7ga2-a,7g9y-a

>  <fragmenstein_error>  (4) 
None

>  <exports>  (4) 
['/opt/xchem-fragalysis-2/maxwin/BulkDock/OUTPUTS/Zika_NS3_RNA-Cleft_knitwork_pure_split1000_batch000_301889.sdf']

>  <inchikey>  (4) 
NCLKRKKCEDIJKV-UHFFFAOYSA-N

>  <tags>  (4) 
['Fragmenstein placed']

>  <csv_name>  (4) 
Zika_NS3_RNA-Cleft_knitwork_pure_split1000_batch000.csv

>  <scratch_subdir>  (4) 
/opt/xchem-fragalysis-2/maxwin/BulkDock/SCRATCH/301889/C1622-P40

>  <fragmenstein_outcome>  (4) 
acceptable

>  <original ID>  (4) 
NCLKRKKCEDIJKV-UHFFFAOYSA-N

>  <energy_score>  (4) 
-26.75246

>  <original SMILES>  (4) 
Sc1nc(N2CCCC2)nc2c1CNCC2

>  <fragmenstein_mode>  (4) 
expansion

>  <name>  (4) 
NCLKRKKCEDIJKV-UHFFFAOYSA-N

>  <ref_pdb>  (4) 
7g9y-a

>  <alias>  (4) 
None

>  <SLURM_JOB_ID>  (4) 
301889

>  <HIPPO Compound ID>  (4) 
1622

$$$$
604
     RDKit          3D

 16 18  0  0  0  0  0  0  0  0999 V2000
  -18.5243    8.7659  -27.7850 N   0  0  0  0  0  0  0  0  0  0  0  0
  -17.3379    8.0421  -27.9581 C   0  0  0  0  0  0  0  0  0  0  0  0
  -16.2108    8.7684  -27.9929 N   0  0  0  0  0  0  0  0  0  0  0  0
  -15.0552    8.1465  -28.2425 C   0  0  0  0  0  0  0  0  0  0  0  0
  -13.9131    8.9579  -28.3504 N   0  0  0  0  0  0  0  0  0  0  0  0
  -12.6834    8.2801  -27.9262 C   0  0  0  0  0  0  0  0  0  0  0  0
  -11.8168    8.1580  -29.1772 C   0  0  0  0  0  0  0  0  0  0  0  0
  -12.8031    8.2919  -30.3197 C   0  0  0  0  0  0  0  0  0  0  0  0
  -13.7723    9.3275  -29.7669 C   0  0  0  0  0  0  0  0  0  0  0  0
  -14.9654    6.8284  -28.4824 N   0  0  0  0  0  0  0  0  0  0  0  0
  -16.1114    6.1232  -28.4874 C   0  0  0  0  0  0  0  0  0  0  0  0
  -17.3504    6.6901  -28.2560 C   0  0  0  0  0  0  0  0  0  0  0  0
  -18.5980    5.8548  -28.2427 C   0  0  0  0  0  0  0  0  0  0  0  0
  -18.4448    4.4873  -28.7711 N   0  0  0  0  0  0  0  0  0  0  0  0
  -17.1993    3.8896  -28.3010 C   0  0  0  0  0  0  0  0  0  0  0  0
  -16.0012    4.6667  -28.8299 C   0  0  0  0  0  0  0  0  0  0  0  0
  1  2  1  0
  2  3  2  0
  3  4  1  0
  4  5  1  0
  5  6  1  0
  6  7  1  0
  7  8  1  0
  8  9  1  0
  4 10  2  0
 10 11  1  0
 11 12  2  0
 12 13  1  0
 13 14  1  0
 14 15  1  0
 15 16  1  0
 12  2  1  0
  9  5  1  0
 16 11  1  0
M  END
>  <distance_score>  (5) 
0.997853

>  <fragmenstein_runtime>  (5) 
10.707866

>  <HIPPO Pose ID>  (5) 
604

>  <SLURM_JOB_NAME>  (5) 
BulkDock.place:ZIKA_NS3_helicase:Zika_NS3_RNA-Cleft_knitwork_pure_split1000_batch000

>  <ref_mols>  (5) 
7ga2-a,7g9y-a

>  <fragmenstein_error>  (5) 
None

>  <exports>  (5) 
['/opt/xchem-fragalysis-2/maxwin/BulkDock/OUTPUTS/Zika_NS3_RNA-Cleft_knitwork_pure_split1000_batch000_301889.sdf']

>  <inchikey>  (5) 
PXVAEBANFVPJGN-UHFFFAOYSA-N

>  <tags>  (5) 
['Fragmenstein placed']

>  <csv_name>  (5) 
Zika_NS3_RNA-Cleft_knitwork_pure_split1000_batch000.csv

>  <scratch_subdir>  (5) 
/opt/xchem-fragalysis-2/maxwin/BulkDock/SCRATCH/301889/C1636-P27

>  <fragmenstein_outcome>  (5) 
acceptable

>  <original ID>  (5) 
PXVAEBANFVPJGN-UHFFFAOYSA-N

>  <energy_score>  (5) 
-8.840435

>  <original SMILES>  (5) 
Nc1nc(N2CCCC2)nc2c1CNCC2

>  <fragmenstein_mode>  (5) 
expansion

>  <name>  (5) 
PXVAEBANFVPJGN-UHFFFAOYSA-N

>  <ref_pdb>  (5) 
7ga2-a

>  <alias>  (5) 
None

>  <SLURM_JOB_ID>  (5) 
301889

>  <HIPPO Compound ID>  (5) 
1636

$$$$
605
     RDKit          3D

 16 18  0  0  0  0  0  0  0  0999 V2000
  -18.5229    8.7988  -27.7854 N   0  0  0  0  0  0  0  0  0  0  0  0
  -17.3491    8.0959  -28.0589 C   0  0  0  0  0  0  0  0  0  0  0  0
  -16.2361    8.8387  -28.0787 N   0  0  0  0  0  0  0  0  0  0  0  0
  -15.0783    8.2176  -28.3188 C   0  0  0  0  0  0  0  0  0  0  0  0
  -13.9409    9.0350  -28.3938 N   0  0  0  0  0  0  0  0  0  0  0  0
  -12.7321    8.3645  -27.9020 C   0  0  0  0  0  0  0  0  0  0  0  0
  -11.8042    8.2465  -29.1065 C   0  0  0  0  0  0  0  0  0  0  0  0
  -12.7336    8.3529  -30.2963 C   0  0  0  0  0  0  0  0  0  0  0  0
  -13.7384    9.3834  -29.8064 C   0  0  0  0  0  0  0  0  0  0  0  0
  -14.9785    6.9002  -28.5635 N   0  0  0  0  0  0  0  0  0  0  0  0
  -16.1151    6.1790  -28.5419 C   0  0  0  0  0  0  0  0  0  0  0  0
  -17.3539    6.7349  -28.2959 C   0  0  0  0  0  0  0  0  0  0  0  0
  -18.5869    5.8850  -28.1986 C   0  0  0  0  0  0  0  0  0  0  0  0
  -18.4393    4.5194  -28.7429 N   0  0  0  0  0  0  0  0  0  0  0  0
  -17.1765    3.9317  -28.3098 C   0  0  0  0  0  0  0  0  0  0  0  0
  -15.9967    4.7187  -28.8659 C   0  0  0  0  0  0  0  0  0  0  0  0
  1  2  1  0
  2  3  2  0
  3  4  1  0
  4  5  1  0
  5  6  1  0
  6  7  1  0
  7  8  1  0
  8  9  1  0
  4 10  2  0
 10 11  1  0
 11 12  2  0
 12 13  1  0
 13 14  1  0
 14 15  1  0
 15 16  1  0
 12  2  1  0
  9  5  1  0
 16 11  1  0
M  END
>  <distance_score>  (6) 
0.999285

>  <fragmenstein_runtime>  (6) 
11.706312

>  <HIPPO Pose ID>  (6) 
605

>  <SLURM_JOB_NAME>  (6) 
BulkDock.place:ZIKA_NS3_helicase:Zika_NS3_RNA-Cleft_knitwork_pure_split1000_batch000

>  <ref_mols>  (6) 
7ga2-a,7g9y-a

>  <fragmenstein_error>  (6) 
None

>  <exports>  (6) 
['/opt/xchem-fragalysis-2/maxwin/BulkDock/OUTPUTS/Zika_NS3_RNA-Cleft_knitwork_pure_split1000_batch000_301889.sdf']

>  <inchikey>  (6) 
PXVAEBANFVPJGN-UHFFFAOYSA-N

>  <tags>  (6) 
['Fragmenstein placed']

>  <csv_name>  (6) 
Zika_NS3_RNA-Cleft_knitwork_pure_split1000_batch000.csv

>  <scratch_subdir>  (6) 
/opt/xchem-fragalysis-2/maxwin/BulkDock/SCRATCH/301889/C1636-P40

>  <fragmenstein_outcome>  (6) 
acceptable

>  <original ID>  (6) 
PXVAEBANFVPJGN-UHFFFAOYSA-N

>  <energy_score>  (6) 
-22.438797

>  <original SMILES>  (6) 
Nc1nc(N2CCCC2)nc2c1CNCC2

>  <fragmenstein_mode>  (6) 
expansion

>  <name>  (6) 
PXVAEBANFVPJGN-UHFFFAOYSA-N

>  <ref_pdb>  (6) 
7g9y-a

>  <alias>  (6) 
None

>  <SLURM_JOB_ID>  (6) 
301889

>  <HIPPO Compound ID>  (6) 
1636

$$$$
